11
0 1
 N   0.000000  0.000000  1.415568
 C   0.000000 -1.144832  0.720611
 C   0.000000  1.144832  0.720611
 C   0.000000 -1.197866 -0.675306
 C   0.000000  1.197866 -0.675306
 C   0.000000  0.000000 -1.389281
 H   0.000000 -2.056541  1.304895
 H   0.000000  2.056541  1.304895
 H   0.000000 -2.152945 -1.182598
 H   0.000000  2.152945 -1.182598
 H   0.000000  0.000000 -2.471136
